Data_Gen/Output_Model/case_ieee123_storage_1148.m
function mpc = case_ieee123_storage_1148
%CASE_IEEE123_STORAGE_1148

%% MATPOWER Case Format : Version 2
mpc.version = '2';

%%-----  Power Flow Data  -----%%
%% system MVA base
mpc.baseMVA = 1;

%% bus data
%	bus_i	type	Pd	Qd	Gs	Bs	area	Vm	Va	baseKV	zone	Vmax	Vmin
mpc.bus = [
	1	3	-0.000782	-0.000391	0	0	1	1	0	4.16	1	1.2	0.8;
	2	1	0.006459	0.0032295	0	0	1	1	0	4.16	1	1.2	0.8;
	3	1	0.000687	0.0003435	0	0	1	1	0	4.16	1	1.2	0.8;
	4	1	0.003074	0.001537	0	0	1	1	0	4.16	1	1.2	0.8;
	5	1	-1e-06	-5e-07	0	0	1	1	0	4.16	1	1.2	0.8;
	6	1	1e-10	5e-11	0	0	1	1	0	4.16	1	1.2	0.8;
	7	1	1e-10	5e-11	0	0	1	1	0	4.16	1	1.2	0.8;
	8	1	0.003663	0.0018315	0	0	1	1	0	4.16	1	1.2	0.8;
	9	1	0.002371	0.0011855	0	0	1	1	0	4.16	1	1.2	0.8;
	10	1	0.000319	0.0001595	0	0	1	1	0	4.16	1	1.2	0.8;
	11	1	0.005046	0.002523	0	0	1	1	0	4.16	1	1.2	0.8;
	12	1	0.000264	0.000132	0	0	1	1	0	4.16	1	1.2	0.8;
	13	1	-6.7e-05	-3.35e-05	0	0	1	1	0	4.16	1	1.2	0.8;
	14	1	1e-10	5e-11	0	0	1	1	0	4.16	1	1.2	0.8;
	15	1	-9.2e-05	-4.6e-05	0	0	1	1	0	4.16	1	1.2	0.8;
	16	1	0.000407	0.0002035	0	0	1	1	0	4.16	1	1.2	0.8;
	17	1	0.003434	0.001717	0	0	1	1	0	4.16	1	1.2	0.8;
	18	1	-0.000214	-0.000107	0	0	1	1	0	4.16	1	1.2	0.8;
	19	1	-3.1e-05	-1.55e-05	0	0	1	1	0	4.16	1	1.2	0.8;
	20	1	0.000574	0.000287	0	0	1	1	0	4.16	1	1.2	0.8;
	21	1	0.000271	0.0001355	0	0	1	1	0	4.16	1	1.2	0.8;
	22	1	-0.00025	-0.000125	0	0	1	1	0	4.16	1	1.2	0.8;
	23	1	0.000207	0.0001035	0	0	1	1	0	4.16	1	1.2	0.8;
	24	1	-0.000189	-9.45e-05	0	0	1	1	0	4.16	1	1.2	0.8;
	25	1	0.000206	0.000103	0	0	1	1	0	4.16	1	1.2	0.8;
	26	1	0.000274	0.000137	0	0	1	1	0	4.16	1	1.2	0.8;
	27	1	0.00035	0.000175	0	0	1	1	0	4.16	1	1.2	0.8;
	28	1	0.000695	0.0003475	0	0	1	1	0	4.16	1	1.2	0.8;
	29	1	0.000702	0.000351	0	0	1	1	0	4.16	1	1.2	0.8;
	30	1	0.004192	0.002096	0	0	1	1	0	4.16	1	1.2	0.8;
	31	1	0.000871	0.0004355	0	0	1	1	0	4.16	1	1.2	0.8;
	32	1	0.000538	0.000269	0	0	1	1	0	4.16	1	1.2	0.8;
	33	1	0.000432	0.000216	0	0	1	1	0	4.16	1	1.2	0.8;
	34	1	-0.000262	-0.000131	0	0	1	1	0	4.16	1	1.2	0.8;
	35	1	0.000247	0.0001235	0	0	1	1	0	4.16	1	1.2	0.8;
	36	1	-5.3e-05	-2.65e-05	0	0	1	1	0	4.16	1	1.2	0.8;
	37	1	0.000343	0.0001715	0	0	1	1	0	4.16	1	1.2	0.8;
	38	1	0.000605	0.0003025	0	0	1	1	0	4.16	1	1.2	0.8;
	39	1	6e-06	3e-06	0	0	1	1	0	4.16	1	1.2	0.8;
	40	1	0.000287	0.0001435	0	0	1	1	0	4.16	1	1.2	0.8;
	41	1	0.000283	0.0001415	0	0	1	1	0	4.16	1	1.2	0.8;
	42	1	1.5e-05	7.5e-06	0	0	1	1	0	4.16	1	1.2	0.8;
	43	1	-0.000305	-0.0001525	0	0	1	1	0	4.16	1	1.2	0.8;
	44	1	0.000579	0.0002895	0	0	1	1	0	4.16	1	1.2	0.8;
	45	1	1e-10	5e-11	0	0	1	1	0	4.16	1	1.2	0.8;
	46	1	0.002126	0.001063	0	0	1	1	0	4.16	1	1.2	0.8;
	47	1	1e-10	5e-11	0	0	1	1	0	4.16	1	1.2	0.8;
	48	1	1e-10	5e-11	0	0	1	1	0	4.16	1	1.2	0.8;
	49	1	0.000794	0.000397	0	0	1	1	0	4.16	1	1.2	0.8;
	50	1	0.000263	0.0001315	0	0	1	1	0	4.16	1	1.2	0.8;
	51	1	1e-10	5e-11	0	0	1	1	0	4.16	1	1.2	0.8;
	52	1	1e-10	5e-11	0	0	1	1	0	4.16	1	1.2	0.8;
	53	1	0.000461	0.0002305	0	0	1	1	0	4.16	1	1.2	0.8;
	54	1	1e-10	5e-11	0	0	1	1	0	4.16	1	1.2	0.8;
	55	1	1e-10	5e-11	0	0	1	1	0	4.16	1	1.2	0.8;
	56	1	0.003175	0.0015875	0	0	1	1	0	4.16	1	1.2	0.8;
	57	1	1e-10	5e-11	0	0	1	1	0	4.16	1	1.2	0.8;
	58	1	1e-10	5e-11	0	0	1	1	0	4.16	1	1.2	0.8;
	59	1	0.000199	9.95e-05	0	0	1	1	0	4.16	1	1.2	0.8;
	60	1	0.000171	8.55e-05	0	0	1	1	0	4.16	1	1.2	0.8;
];

%% generator data
%	bus	Pg	Qg	Qmax	Qmin	Vg	mBase	status	Pmax	Pmin	Pc1	Pc2	Qc1min	Qc1max	Qc2min	Qc2max	ramp_agc	ramp_10	ramp_30	ramp_q	apf
mpc.gen = [
	1	0.0423440012	0	200	-200	1	1	1	200	-200	0	0	0	0	0	0	10	0	0	0	0;
];

%% branch data
%	fbus	tbus	r	x	b	rateA	rateB	rateC	ratio	angle	status	angmin	angmax
mpc.branch = [
	1	2	0.0013398623	0.0027450827	3.02770272e-08	100	100	100	0	0	1	-80	80;
	1	2	0.0013398623	0.0027450827	3.02770272e-08	100	100	100	0	0	1	-80	80;
	2	3	0.0013398623	0.0027450827	3.02770272e-08	100	100	100	0	0	1	-80	80;
	3	4	0.0013398623	0.0027450827	3.02770272e-08	100	100	100	0	0	1	-80	80;
	4	5	0.0013398623	0.0027450827	3.02770272e-08	100	100	100	0	0	1	-80	80;
	5	6	0.0013398623	0.0027450827	3.02770272e-08	100	100	100	0	0	1	-80	80;
	6	7	0.0013398623	0.0027450827	3.02770272e-08	100	100	100	0	0	1	-80	80;
	7	8	0.0013398623	0.0027450827	3.02770272e-08	100	100	100	0	0	1	-80	80;
	8	9	0.0013398623	0.0027450827	3.02770272e-08	100	100	100	0	0	1	-80	80;
	9	10	0.0013398623	0.0027450827	3.02770272e-08	100	100	100	0	0	1	-80	80;
	10	11	0.0013398623	0.0027450827	3.02770272e-08	100	100	100	0	0	1	-80	80;
	11	12	0.0013398623	0.0027450827	3.02770272e-08	100	100	100	0	0	1	-80	80;
	12	13	0.0013398623	0.0027450827	3.02770272e-08	100	100	100	0	0	1	-80	80;
	13	14	0.0013398623	0.0027450827	3.02770272e-08	100	100	100	0	0	1	-80	80;
	14	15	0.0013398623	0.0027450827	3.02770272e-08	100	100	100	0	0	1	-80	80;
	15	16	0.0013398623	0.0027450827	3.02770272e-08	100	100	100	0	0	1	-80	80;
	16	17	0.0013398623	0.0027450827	3.02770272e-08	100	100	100	0	0	1	-80	80;
	17	18	0.0013398623	0.0027450827	3.02770272e-08	100	100	100	0	0	1	-80	80;
	18	19	0.0013398623	0.0027450827	3.02770272e-08	100	100	100	0	0	1	-80	80;
	19	20	0.0013398623	0.0027450827	3.02770272e-08	100	100	100	0	0	1	-80	80;
	20	21	0.0013398623	0.0027450827	3.02770272e-08	100	100	100	0	0	1	-80	80;
	21	22	0.0013398623	0.0027450827	3.02770272e-08	100	100	100	0	0	1	-80	80;
	22	23	0.0013398623	0.0027450827	3.02770272e-08	100	100	100	0	0	1	-80	80;
	23	24	0.0013398623	0.0027450827	3.02770272e-08	100	100	100	0	0	1	-80	80;
	24	25	0.0013398623	0.0027450827	3.02770272e-08	100	100	100	0	0	1	-80	80;
	25	26	0.0013398623	0.0027450827	3.02770272e-08	100	100	100	0	0	1	-80	80;
	26	27	0.0013398623	0.0027450827	3.02770272e-08	100	100	100	0	0	1	-80	80;
	27	28	0.0013398623	0.0027450827	3.02770272e-08	100	100	100	0	0	1	-80	80;
	28	29	0.0013398623	0.0027450827	3.02770272e-08	100	100	100	0	0	1	-80	80;
	1	30	0.0013398623	0.0027450827	3.02770272e-08	100	100	100	0	0	1	-80	80;
	30	31	0.0013398623	0.0027450827	3.02770272e-08	100	100	100	0	0	1	-80	80;
	31	32	0.0013398623	0.0027450827	3.02770272e-08	100	100	100	0	0	1	-80	80;
	32	33	0.0013398623	0.0027450827	3.02770272e-08	100	100	100	0	0	1	-80	80;
	33	34	0.0013398623	0.0027450827	3.02770272e-08	100	100	100	0	0	1	-80	80;
	34	35	0.0013398623	0.0027450827	3.02770272e-08	100	100	100	0	0	1	-80	80;
	35	36	0.0013398623	0.0027450827	3.02770272e-08	100	100	100	0	0	1	-80	80;
	36	37	0.0013398623	0.0027450827	3.02770272e-08	100	100	100	0	0	1	-80	80;
	37	38	0.0013398623	0.0027450827	3.02770272e-08	100	100	100	0	0	1	-80	80;
	38	39	0.0013398623	0.0027450827	3.02770272e-08	100	100	100	0	0	1	-80	80;
	39	40	0.0013398623	0.0027450827	3.02770272e-08	100	100	100	0	0	1	-80	80;
	40	41	0.0013398623	0.0027450827	3.02770272e-08	100	100	100	0	0	1	-80	80;
	41	42	0.0013398623	0.0027450827	3.02770272e-08	100	100	100	0	0	1	-80	80;
	42	43	0.0013398623	0.0027450827	3.02770272e-08	100	100	100	0	0	1	-80	80;
	43	44	0.0013398623	0.0027450827	3.02770272e-08	100	100	100	0	0	1	-80	80;
	44	45	0.0013398623	0.0027450827	3.02770272e-08	100	100	100	0	0	1	-80	80;
	45	46	0.0013398623	0.0027450827	3.02770272e-08	100	100	100	0	0	1	-80	80;
	46	47	0.0013398623	0.0027450827	3.02770272e-08	100	100	100	0	0	1	-80	80;
	47	48	0.0013398623	0.0027450827	3.02770272e-08	100	100	100	0	0	1	-80	80;
	48	49	0.0013398623	0.0027450827	3.02770272e-08	100	100	100	0	0	1	-80	80;
	49	50	0.0013398623	0.0027450827	3.02770272e-08	100	100	100	0	0	1	-80	80;
	50	51	0.0013398623	0.0027450827	3.02770272e-08	100	100	100	0	0	1	-80	80;
	51	52	0.0013398623	0.0027450827	3.02770272e-08	100	100	100	0	0	1	-80	80;
	52	53	0.0013398623	0.0027450827	3.02770272e-08	100	100	100	0	0	1	-80	80;
	53	54	0.0013398623	0.0027450827	3.02770272e-08	100	100	100	0	0	1	-80	80;
	54	55	0.0013398623	0.0027450827	3.02770272e-08	100	100	100	0	0	1	-80	80;
	55	56	0.0013398623	0.0027450827	3.02770272e-08	100	100	100	0	0	1	-80	80;
	56	57	0.0013398623	0.0027450827	3.02770272e-08	100	100	100	0	0	1	-80	80;
	57	58	0.0013398623	0.0027450827	3.02770272e-08	100	100	100	0	0	1	-80	80;
	58	59	0.0013398623	0.0027450827	3.02770272e-08	100	100	100	0	0	1	-80	80;
	59	60	0.0013398623	0.0027450827	3.02770272e-08	100	100	100	0	0	1	-80	80;
];

%%-----  OPF Data  -----%%
%% generator cost data
%	1	startup	shutdown	n	x1	y1	...	xn	yn
%	2	startup	shutdown	n	c(n-1)	...	c0
mpc.gencost = [
	2	0	0	3	1	1	0;
];
     %% storage data
 % hours;
mpc.time_elapsed = 0.0167
